NDPIS/Case0/WithoutDG/case0_WithoutDG_VLN_Node.Txt

LINE-GROUND and LINE-LINE VOLTAGES BY BUS & NODE

Bus       Node    VLN (kV)   Angle      pu     Base kV    Node-Node   VLL (kV)  Angle      pu

SOURCEBUS 1       6.5702 /_   -0.3   0.99824    11.400        1-2      11.38 /_   29.7   0.99824
   -      2       6.5702 /_ -120.3   0.99824    11.400        2-3      11.38 /_  -90.3   0.99824
   -      3       6.5702 /_  119.7   0.99824    11.400        3-1      11.38 /_  149.7   0.99824
2 ....... 1       6.5474 /_   -0.8   0.99478    11.400        1-2      11.34 /_   29.2   0.99478
   -      2       6.5474 /_ -120.8   0.99478    11.400        2-3      11.34 /_  -90.8   0.99478
   -      3       6.5474 /_  119.2   0.99478    11.400        3-1      11.34 /_  149.2   0.99478
3 ....... 1       6.5474 /_   -0.8   0.99478    11.400        1-2      11.34 /_   29.2   0.99478
   -      2       6.5474 /_ -120.8   0.99478    11.400        2-3      11.34 /_  -90.8   0.99478
   -      3       6.5474 /_  119.2   0.99478    11.400        3-1      11.34 /_  149.2   0.99478
